<?xml version="1.0" encoding="utf-8"?>
<!DOCTYPE network SYSTEM "http://www.matsim.org/files/dtd/network_v2.dtd">

<network>
	<nodes>
		<node id="1" x="2000" y="1000" />
		<node id="2" x="4000" y="1500" />
		<node id="3" x="3000" y="3000" />

	</nodes>

	<links capperiod="01:00:00">
		<link id="1" from="1" to="2" length="3000.0" capacity="1800" freespeed="13.88" permlanes="1" modes="car" />
		<link id="2" from="2" to="1" length="3000.0" capacity="1800" freespeed="13.88" permlanes="1" modes="car" />
		<link id="3" from="2" to="3" length="5000.0" capacity="3500" freespeed="22.22" permlanes="2" modes="car" />
		<link id="4" from="3" to="2" length="5000.0" capacity="1800" freespeed="22.22" permlanes="1" modes="car" />
	</links>

</network>